<?xml version="1.0" encoding="utf-8"?>
<RelativeLayout xmlns:android="http://schemas.android.com/apk/res/android"
    android:layout_width="match_parent"
    android:layout_height="match_parent">

    <ScrollView
        android:layout_width="match_parent"
        android:layout_height="match_parent">

        <LinearLayout
            android:id="@+id/layoutContainer"
            android:layout_width="match_parent"
            android:layout_height="wrap_content"
            android:orientation="vertical"
            android:padding="10dp">

            <net.basicmodel.widget.EditViewContainer
                android:id="@+id/name"
                android:layout_width="match_parent"
                android:layout_height="?actionBarSize" />

            <net.basicmodel.widget.EditViewContainer
                android:id="@+id/location"
                android:layout_width="match_parent"
                android:layout_height="?actionBarSize"
                android:layout_marginTop="10dp" />

            <net.basicmodel.widget.EditViewContainer
                android:id="@+id/room"
                android:layout_width="match_parent"
                android:layout_height="?actionBarSize"
                android:layout_marginTop="10dp" />

            <net.basicmodel.widget.EditViewContainer
                android:id="@+id/point"
                android:layout_width="match_parent"
                android:layout_height="?actionBarSize"
                android:layout_marginTop="10dp" />

            <RelativeLayout
                android:layout_width="match_parent"
                android:layout_height="?actionBarSize"
                android:gravity="center_vertical"
                android:layout_marginTop="10dp">

                <TextView
                    android:layout_width="100dp"
                    android:layout_height="match_parent"
                    android:layout_alignParentStart="true"
                    android:gravity="center_vertical"
                    android:text="网元详细信息"
                    android:textColor="@color/black" />

                <ImageView
                    android:id="@+id/net_img_add"
                    android:layout_width="48dp"
                    android:layout_height="match_parent"
                    android:layout_alignParentEnd="true"
                    android:layout_marginEnd="12dp"
                    android:scaleType="center"
                    android:src="@mipmap/activity_main_add_icon" />
            </RelativeLayout>

            <androidx.recyclerview.widget.RecyclerView
                android:id="@+id/net_recycler"
                android:layout_width="match_parent"
                android:layout_height="wrap_content"
                android:layout_marginEnd="12dp"
                android:layout_marginTop="10dp"/>

            <RelativeLayout
                android:layout_width="match_parent"
                android:layout_height="100dp"
                android:layout_marginTop="10dp"
                android:orientation="horizontal">

                <LinearLayout
                    android:layout_width="match_parent"
                    android:layout_height="match_parent"
                    android:layout_toStartOf="@+id/img_add">

                    <TextView
                        android:layout_width="100dp"
                        android:layout_height="match_parent"
                        android:gravity="center_vertical"
                        android:text="现场图片"
                        android:textColor="@color/black" />

                    <androidx.recyclerview.widget.RecyclerView
                        android:id="@+id/img_recycler"
                        android:layout_width="match_parent"
                        android:layout_height="100dp" />
                </LinearLayout>

                <ImageView
                    android:id="@+id/img_add"
                    android:layout_width="48dp"
                    android:layout_height="match_parent"
                    android:layout_alignParentEnd="true"
                    android:layout_marginEnd="12dp"
                    android:scaleType="center"
                    android:src="@mipmap/activity_main_add_icon" />
            </RelativeLayout>
        </LinearLayout>
    </ScrollView>
</RelativeLayout>